*Heading
** Job name: Beam_No7001 Model name: Beam_No7001
** Generated by: Abaqus/CAE 2020
*Preprint, echo=NO, model=NO, history=NO, contact=NO
**
** PARTS
**
*Part, name=BEAM-1
*Node
      1,           0., -0.00106584001,           0.
      2, 0.0199999996, -0.000708687992,           0.
      3, 0.0399999991, -0.000769174017,           0.
      4, 0.0599999987, -0.000969082001,           0.
      5, 0.0799999982,  -0.00114352,           0.
      6,  0.100000001, -0.000893982011,           0.
      7,  0.119999997, -0.000806745025,           0.
      8,  0.140000001, -0.000914972974,           0.
      9,  0.159999996, -0.000644623011,           0.
     10,  0.180000007, -0.000685087987,           0.
     11,  0.200000003, -0.000853898993,           0.
     12,  0.219999999, -0.000812840997,           0.
     13,  0.239999995, -0.000575095008,           0.
     14,   0.25999999, -0.000846983981,           0.
     15,  0.280000001, -0.000948065019,           0.
     16,  0.300000012, -0.00119192002,           0.
     17,  0.319999993, -0.00106663001,           0.
     18,  0.340000004, -0.00149983005,           0.
     19,  0.360000014, -0.00175151997,           0.
     20,  0.379999995, -0.00158929999,           0.
** ... 541 like lines cut
*Element, type=S4R
  1,   1,  52,  53,   2
  2,   2,  53,  54,   3
  3,   3,  54,  55,   4
  4,   4,  55,  56,   5
  5,   5,  56,  57,   6
  6,   6,  57,  58,   7
  7,   7,  58,  59,   8
  8,   8,  59,  60,   9
  9,   9,  60,  61,  10
 10,  10,  61,  62,  11
 11,  11,  62,  63,  12
 12,  12,  63,  64,  13
 13,  13,  64,  65,  14
 14,  14,  65,  66,  15
 15,  15,  66,  67,  16
 16,  16,  67,  68,  17
 17,  17,  68,  69,  18
 18,  18,  69,  70,  19
 19,  19,  70,  71,  20
 20,  20,  71,  72,  21
** ... 480 like lines cut
*Nset, nset=ALLNODES, generate
   1,  561,    1
*Elset, elset=ALLELES, generate
   1,  500,    1
*Nset, nset=LEFTBOUNDARY_NODE, generate
   1,  511,   51
*Nset, nset=RIGHTBOUNDARY_NODE, generate
  51,  561,   51
*Nset, nset=SET-LOADPOINT
 281,
*Nset, nset=UP_NODE, generate
  1,  51,   1
*Elset, elset=UPBOUNDARY_ELE, generate
  1,  50,   1
*Elset, elset=_UPBOUNDARY_SURF_E4, internal, generate
  1,  50,   1
*Surface, type=ELEMENT, name=UPBOUNDARY_SURF
_UPBOUNDARY_SURF_E4, E4
** Section: Section-1-ALLELES
*Shell Section, elset=ALLELES, material=PET, offset=SNEG, shell thickness=BEAM-1_ANALYTICAL-1
1., 5
*Distribution, name=BEAM-1_ANALYTICAL-1, location=ELEMENT, Table=BEAM-1_ANALYTICAL-1_Table
,     1.
1,  0.001
2,  0.001
3,  0.001
4,  0.001
5,  0.001
6,  0.001
7,  0.001
8,  0.001
9,  0.001
10,  0.001
11,  0.001
12,  0.001
13,  0.001
14,  0.001
15,  0.001
16,  0.001
17,  0.001
18,  0.001
19,  0.001
20,  0.001
** ... 480 like lines cut
*End Part
**  
**
** ASSEMBLY
**
*Assembly, name=Assembly
**  
*Instance, name=BEAM-1, part=BEAM-1
*End Instance
**  
*End Assembly
** 
** MATERIALS
** 
*Material, name=PET
*Elastic
35000., 0.39
*Distribution Table, name=BEAM-1_ANALYTICAL-1_Table
length
** ----------------------------------------------------------------
** 
** STEP: Step-1
** 
*Step, name=Step-1, nlgeom=YES, inc=1000
*Static
0.01, 1., 1e-05, 1.
** 
** BOUNDARY CONDITIONS
** 
** Name: Disp-BC-1 Type: Displacement/Rotation
*Boundary
BEAM-1.LEFTBOUNDARY_NODE, 1, 1
** Name: Disp-BC-2 Type: Displacement/Rotation
*Boundary
BEAM-1.LEFTBOUNDARY_NODE, 2, 2
** Name: Disp-BC-3 Type: Displacement/Rotation
*Boundary
BEAM-1.LEFTBOUNDARY_NODE, 3, 3
** Name: Disp-BC-4 Type: Displacement/Rotation
*Boundary
BEAM-1.LEFTBOUNDARY_NODE, 4, 4
** Name: Disp-BC-5 Type: Displacement/Rotation
*Boundary
BEAM-1.LEFTBOUNDARY_NODE, 5, 5
** Name: Disp-BC-6 Type: Displacement/Rotation
*Boundary
BEAM-1.LEFTBOUNDARY_NODE, 6, 6
** Name: Disp-BC-7 Type: Displacement/Rotation
*Boundary
BEAM-1.RIGHTBOUNDARY_NODE, 1, 1
** Name: Disp-BC-8 Type: Displacement/Rotation
*Boundary
BEAM-1.RIGHTBOUNDARY_NODE, 2, 2
** Name: Disp-BC-9 Type: Displacement/Rotation
*Boundary
BEAM-1.RIGHTBOUNDARY_NODE, 3, 3
** Name: Disp-BC-10 Type: Displacement/Rotation
*Boundary
BEAM-1.RIGHTBOUNDARY_NODE, 4, 4
** Name: Disp-BC-11 Type: Displacement/Rotation
*Boundary
BEAM-1.RIGHTBOUNDARY_NODE, 5, 5
** Name: Disp-BC-12 Type: Displacement/Rotation
*Boundary
BEAM-1.RIGHTBOUNDARY_NODE, 6, 6
** 
** LOADS
** 
** Name: CFORCE-1   Type: Concentrated force
*Cload
BEAM-1.SET-LOADPOINT, 3, 0.001
** 
** OUTPUT REQUESTS
** 
*Restart, write, frequency=0
** 
** FIELD OUTPUT: F-Output-3
** 
*Output, field
*Contact Output
CDISP, CSTRESS
** 
** FIELD OUTPUT: F-Output-1
** 
*Node Output
COORD, U
** 
** FIELD OUTPUT: F-Output-2
** 
*Element Output, directions=YES
SE, 
** 
** HISTORY OUTPUT: H-Output-1
** 
*Output, history, variable=PRESELECT
*End Step
** ----------------------------------------------------------------
** 
** STEP: Step-2
** 
*Step, name=Step-2, nlgeom=YES, inc=1000
*Static
0.01, 1., 1e-05, 1.
** 
** BOUNDARY CONDITIONS
** 
** Name: Disp-BC-1 Type: Displacement/Rotation
*Boundary, op=NEW
** Name: Disp-BC-2 Type: Displacement/Rotation
*Boundary, op=NEW
BEAM-1.LEFTBOUNDARY_NODE, 2, 2
** Name: Disp-BC-3 Type: Displacement/Rotation
*Boundary, op=NEW
BEAM-1.LEFTBOUNDARY_NODE, 3, 3
** Name: Disp-BC-4 Type: Displacement/Rotation
*Boundary, op=NEW
BEAM-1.LEFTBOUNDARY_NODE, 4, 4
** Name: Disp-BC-5 Type: Displacement/Rotation
*Boundary, op=NEW
BEAM-1.LEFTBOUNDARY_NODE, 5, 5
** Name: Disp-BC-6 Type: Displacement/Rotation
*Boundary, op=NEW
BEAM-1.LEFTBOUNDARY_NODE, 6, 6
** Name: Disp-BC-7 Type: Displacement/Rotation
*Boundary, op=NEW
** Name: Disp-BC-8 Type: Displacement/Rotation
*Boundary, op=NEW
BEAM-1.RIGHTBOUNDARY_NODE, 2, 2
** Name: Disp-BC-9 Type: Displacement/Rotation
*Boundary, op=NEW
BEAM-1.RIGHTBOUNDARY_NODE, 3, 3
** Name: Disp-BC-10 Type: Displacement/Rotation
*Boundary, op=NEW
BEAM-1.RIGHTBOUNDARY_NODE, 4, 4
** Name: Disp-BC-11 Type: Displacement/Rotation
*Boundary, op=NEW
BEAM-1.RIGHTBOUNDARY_NODE, 5, 5
** Name: Disp-BC-12 Type: Displacement/Rotation
*Boundary, op=NEW
BEAM-1.RIGHTBOUNDARY_NODE, 6, 6
** Name: Disp-BC-13 Type: Displacement/Rotation
*Boundary, op=NEW
BEAM-1.LEFTBOUNDARY_NODE, 1, 1, 0.005
** Name: Disp-BC-14 Type: Displacement/Rotation
*Boundary, op=NEW
BEAM-1.RIGHTBOUNDARY_NODE, 1, 1, -0.005
** 
** OUTPUT REQUESTS
** 
*Restart, write, frequency=0
** 
** FIELD OUTPUT: F-Output-6
** 
*Output, field
*Contact Output
CDISP, CSTRESS
** 
** FIELD OUTPUT: F-Output-4
** 
*Node Output
COORD, U
** 
** FIELD OUTPUT: F-Output-5
** 
*Element Output, directions=YES
SE, 
** 
** HISTORY OUTPUT: H-Output-2
** 
*Output, history, variable=PRESELECT
*End Step
** ----------------------------------------------------------------
** 
** STEP: Step-3
** 
*Step, name=Step-3, nlgeom=YES, inc=1000
*Static
0.01, 1., 1e-05, 1.
** 
** BOUNDARY CONDITIONS
** 
** Name: Disp-BC-2 Type: Displacement/Rotation
*Boundary, op=NEW
** Name: Disp-BC-3 Type: Displacement/Rotation
*Boundary, op=NEW
** Name: Disp-BC-4 Type: Displacement/Rotation
*Boundary, op=NEW
** Name: Disp-BC-5 Type: Displacement/Rotation
*Boundary, op=NEW
** Name: Disp-BC-6 Type: Displacement/Rotation
*Boundary, op=NEW
** Name: Disp-BC-8 Type: Displacement/Rotation
*Boundary, op=NEW
** Name: Disp-BC-9 Type: Displacement/Rotation
*Boundary, op=NEW
** Name: Disp-BC-10 Type: Displacement/Rotation
*Boundary, op=NEW
** Name: Disp-BC-11 Type: Displacement/Rotation
*Boundary, op=NEW
** Name: Disp-BC-12 Type: Displacement/Rotation
*Boundary, op=NEW
** Name: Disp-BC-13 Type: Displacement/Rotation
*Boundary, op=NEW
** Name: Disp-BC-14 Type: Displacement/Rotation
*Boundary, op=NEW
** Name: Disp-BC-15 Type: Displacement/Rotation
*Boundary, op=NEW
BEAM-1.LEFTBOUNDARY_NODE, 1, 1, 0.1
** Name: Disp-BC-16 Type: Displacement/Rotation
*Boundary, op=NEW
BEAM-1.LEFTBOUNDARY_NODE, 2, 2
** Name: Disp-BC-17 Type: Displacement/Rotation
*Boundary, op=NEW
BEAM-1.LEFTBOUNDARY_NODE, 3, 3
** Name: Disp-BC-18 Type: Displacement/Rotation
*Boundary, op=NEW
BEAM-1.LEFTBOUNDARY_NODE, 4, 4
** Name: Disp-BC-19 Type: Displacement/Rotation
*Boundary, op=NEW
BEAM-1.LEFTBOUNDARY_NODE, 5, 5
** Name: Disp-BC-20 Type: Displacement/Rotation
*Boundary, op=NEW
BEAM-1.LEFTBOUNDARY_NODE, 6, 6
** Name: Disp-BC-21 Type: Displacement/Rotation
*Boundary, op=NEW
BEAM-1.RIGHTBOUNDARY_NODE, 1, 1, -0.1
** Name: Disp-BC-22 Type: Displacement/Rotation
*Boundary, op=NEW
BEAM-1.RIGHTBOUNDARY_NODE, 2, 2
** Name: Disp-BC-23 Type: Displacement/Rotation
*Boundary, op=NEW
BEAM-1.RIGHTBOUNDARY_NODE, 3, 3
** Name: Disp-BC-24 Type: Displacement/Rotation
*Boundary, op=NEW
BEAM-1.RIGHTBOUNDARY_NODE, 4, 4
** Name: Disp-BC-25 Type: Displacement/Rotation
*Boundary, op=NEW
BEAM-1.RIGHTBOUNDARY_NODE, 5, 5
** Name: Disp-BC-26 Type: Displacement/Rotation
*Boundary, op=NEW
BEAM-1.RIGHTBOUNDARY_NODE, 6, 6
** 
** LOADS
** 
** Name: CFORCE-1   Type: Concentrated force
*Cload, op=NEW
** 
** OUTPUT REQUESTS
** 
*Restart, write, frequency=0
** 
** FIELD OUTPUT: F-Output-9
** 
*Output, field
*Contact Output
CDISP, CSTRESS
** 
** FIELD OUTPUT: F-Output-7
** 
*Node Output
COORD, U
** 
** FIELD OUTPUT: F-Output-8
** 
*Element Output, directions=YES
SE, 
** 
** HISTORY OUTPUT: H-Output-3
** 
*Output, history, variable=PRESELECT
*End Step
** ----------------------------------------------------------------
** 
** STEP: Step-4
** 
*Step, name=Step-4, nlgeom=YES, inc=1000
*Static
0.01, 1., 1e-05, 1.
** 
** BOUNDARY CONDITIONS
** 
** Name: Disp-BC-15 Type: Displacement/Rotation
*Boundary, op=NEW
** Name: Disp-BC-16 Type: Displacement/Rotation
*Boundary, op=NEW
BEAM-1.LEFTBOUNDARY_NODE, 2, 2
** Name: Disp-BC-17 Type: Displacement/Rotation
*Boundary, op=NEW
BEAM-1.LEFTBOUNDARY_NODE, 3, 3
** Name: Disp-BC-18 Type: Displacement/Rotation
*Boundary, op=NEW
BEAM-1.LEFTBOUNDARY_NODE, 4, 4
** Name: Disp-BC-19 Type: Displacement/Rotation
*Boundary, op=NEW
BEAM-1.LEFTBOUNDARY_NODE, 5, 5
** Name: Disp-BC-20 Type: Displacement/Rotation
*Boundary, op=NEW
BEAM-1.LEFTBOUNDARY_NODE, 6, 6
** Name: Disp-BC-21 Type: Displacement/Rotation
*Boundary, op=NEW
** Name: Disp-BC-22 Type: Displacement/Rotation
*Boundary, op=NEW
BEAM-1.RIGHTBOUNDARY_NODE, 2, 2
** Name: Disp-BC-23 Type: Displacement/Rotation
*Boundary, op=NEW
BEAM-1.RIGHTBOUNDARY_NODE, 3, 3
** Name: Disp-BC-24 Type: Displacement/Rotation
*Boundary, op=NEW
BEAM-1.RIGHTBOUNDARY_NODE, 4, 4
** Name: Disp-BC-25 Type: Displacement/Rotation
*Boundary, op=NEW
BEAM-1.RIGHTBOUNDARY_NODE, 5, 5
** Name: Disp-BC-26 Type: Displacement/Rotation
*Boundary, op=NEW
BEAM-1.RIGHTBOUNDARY_NODE, 6, 6
** Name: Disp-BC-27 Type: Displacement/Rotation
*Boundary, op=NEW
BEAM-1.LEFTBOUNDARY_NODE, 1, 1, 0.063996
** Name: Disp-BC-28 Type: Displacement/Rotation
*Boundary, op=NEW
BEAM-1.RIGHTBOUNDARY_NODE, 1, 1, -0.063996
** 
** OUTPUT REQUESTS
** 
*Restart, write, frequency=0
** 
** FIELD OUTPUT: F-Output-12
** 
*Output, field
*Contact Output
CDISP, CSTRESS
** 
** FIELD OUTPUT: F-Output-10
** 
*Node Output
COORD, U
** 
** FIELD OUTPUT: F-Output-11
** 
*Element Output, directions=YES
SE, 
** 
** HISTORY OUTPUT: H-Output-4
** 
*Output, history, variable=PRESELECT
*End Step
